Optical constants. A. G. Mathewson and H. P. Myers. Absolute values of the optical constants of some pure metals. Phys. Scr. 4, 291-292 (1971)
Comments: 298 K (24.85 Â°C)
wavelength (um)	n	k
25.00000	1.93000	0.20000
24.39024	1.93900	0.22600
23.25581	1.91800	0.30000
22.72727	1.88100	0.32000
22.22222	1.84800	0.32900
21.27660	1.78100	0.29000
20.83333	1.78200	0.25700
20.40816	1.80400	0.24000
20.00000	1.82300	0.23500
19.60784	1.84200	0.23800
18.86792	1.89200	0.26100
18.51852	1.92600	0.29900
18.18182	1.94600	0.36200
17.85714	1.93900	0.45700
17.54386	1.86900	0.55400
17.24138	1.74100	0.59400
16.94915	1.62100	0.56400
16.66667	1.54200	0.47900
16.12903	1.51200	0.35200
15.87302	1.51200	0.29900
15.38462	1.55100	0.22100
14.92537	1.59600	0.19100
14.70588	1.61300	0.18300
14.28571	1.64300	0.17300
13.88889	1.66300	0.17100
13.51351	1.68100	0.16500
13.15789	1.70100	0.16000
12.82051	1.72600	0.15700
12.65823	1.74100	0.15700
12.50000	1.75700	0.15800
12.19512	1.79600	0.16800
11.90476	1.84400	0.19400
11.76471	1.86900	0.21600
11.49425	1.91600	0.31300
11.44165	1.91100	0.34100
11.36364	1.90400	0.38600
11.23596	1.84200	0.46400
11.11111	1.73900	0.46300
10.98901	1.67600	0.41000
10.86957	1.66300	0.35100
10.75269	1.67800	0.30100
10.63830	1.71700	0.27500
10.52632	1.75600	0.27100
10.41667	1.78800	0.27700
10.38422	1.80700	0.28200
10.30928	1.82200	0.29200
10.20408	1.84900	0.31100
10.10101	1.88200	0.33800
9.90099	1.94700	0.45300
9.80392	1.94400	0.53800
9.70874	1.90700	0.63700
9.61538	1.80700	0.70800
9.52381	1.70200	0.71100
9.43396	1.62400	0.66800
9.34579	1.58900	0.61200
9.25926	1.59000	0.56000
9.17431	1.62600	0.54000
9.09091	1.65500	0.55600
9.00901	1.66900	0.59000
8.92857	1.66600	0.63400
8.84956	1.64300	0.68100
8.69565	1.54500	0.75500
8.62069	1.47900	0.76100
8.54701	1.42100	0.75800
8.40336	1.32000	0.71900
8.26446	1.24100	0.66300
8.13008	1.17900	0.59300
8.06452	1.16100	0.54700
8.00000	1.15100	0.51300
7.87402	1.14500	0.44500
7.75194	1.14400	0.39700
7.63359	1.13600	0.35100
7.57576	1.13300	0.32300
7.46269	1.14200	0.26200
7.35294	1.17300	0.21100
7.29927	1.19200	0.19500
7.19424	1.22200	0.17300
7.09220	1.24900	0.15800
6.99301	1.27200	0.14300
6.89655	1.29700	0.14300
6.80272	1.30800	0.13700
6.71141	1.32300	0.13000
6.66667	1.33100	0.12600
6.62252	1.34000	0.12200
6.57895	1.35100	0.12100
6.53595	1.36100	0.12200
6.49351	1.36800	0.12300
6.41026	1.38400	0.12500
6.32911	1.39900	0.13000
6.25000	1.41300	0.13800
6.21118	1.42200	0.14400
6.17284	1.42800	0.15200
6.13497	1.43400	0.16400
6.09756	1.43300	0.17500
6.06061	1.43000	0.18400
6.02410	1.42700	0.19100
5.95238	1.42000	0.20300
5.88235	1.41000	0.21500
5.81395	1.39200	0.22500
5.74713	1.37100	0.22000
5.68182	1.36100	0.21200
5.64972	1.35600	0.20900
5.61798	1.35000	0.20600
5.55556	1.34100	0.19400
5.49451	1.33700	0.18200
5.43478	1.33600	0.17100
5.37634	1.33600	0.16000
5.31915	1.33900	0.15100
5.26316	1.34200	0.14400
5.18135	1.34700	0.13500
5.10204	1.35300	0.12800
4.95050	1.36600	0.11800
4.80769	1.37900	0.11600
4.71698	1.38400	0.11700
4.58716	1.38600	0.12100
4.46429	1.38400	0.11900
4.36681	1.38600	0.11300
4.29185	1.39500	0.10900
4.27350	1.39700	0.11000
4.21941	1.40500	0.11700
4.14938	1.39900	0.12100
4.08163	1.40000	0.12400
4.00000	1.39800	0.12600
3.95257	1.39600	0.12700
3.90625	1.39500	0.12700
3.86100	1.39500	0.12700
3.84615	1.39500	0.12700
3.81679	1.39600	0.12800
3.75940	1.39600	0.13000
3.69004	1.39700	0.13600
3.62319	1.39400	0.14300
3.55872	1.38800	0.15300
3.47222	1.37000	0.16100
3.41297	1.35700	0.15900
3.34448	1.34100	0.15900
3.27869	1.32500	0.15000
3.17460	1.30600	0.13100
3.07692	1.29600	0.10900
3.02115	1.29400	0.09900
2.98507	1.29200	0.09300
2.94118	1.28800	0.08600
2.91545	1.28400	0.08200
2.88184	1.27700	0.07300
2.84091	1.27300	0.05600
2.83286	1.27200	0.05200
2.77008	1.27700	0.02300
2.76243	1.27900	0.01900
2.72480	1.29300	0.00600
2.50000	1.34400	0.00376
2.43902	1.35200	0.00297
2.38095	1.35800	0.00241
2.32558	1.36200	0.00209
2.27273	1.36700	0.00186
2.22222	1.37000	0.00167
2.17391	1.37400	0.00154
2.12766	1.37700	0.00143
2.08333	1.38000	0.00135
2.04082	1.38200	0.00130
2.00000	1.38400	0.00126
1.96078	1.38600	0.00124
1.92308	1.38800	0.00111
1.88679	1.38900	0.00080
1.85185	1.39100	0.00060
1.81818	1.39200	0.00054
1.78571	1.39300	0.00049
1.75439	1.39400	0.00042
1.72414	1.39600	0.00036
1.69492	1.39700	0.00031
1.66667	1.39800	0.00027
1.63934	1.39800	0.00023
1.61290	1.39900	0.00020
1.58730	1.40000	0.00018
1.56250	1.40200	0.00016
1.53846	1.40300	0.00014
1.51515	1.40300	0.00013
1.49254	1.40400	0.00012
1.47059	1.40500	0.00011
1.44928	1.40600	0.00010
1.42857	1.40600	0.00009
1.40845	1.40700	0.00006
1.38889	1.40800	0.00004
1.36986	1.40900	0.00003
1.35135	1.41000	0.00002
1.33333	1.41000	0.00002
1.31579	1.41100	0.00001
1.29870	1.41100	0.00001
1.28205	1.41200	0.00001
1.26582	1.41300	0.00001
1.25000	1.41300	0.00001
1.21951	1.41500	0.00001
1.19048	1.41600	0.00000
1.16279	1.41600	0.00000
1.13636	1.41700	0.00000
1.11111	1.41800	0.00000
1.08696	1.41900	0.00000
1.06383	1.42000	0.00000
1.04167	1.42100	0.00000
1.02041	1.42100	0.00000
1.00000	1.42200	0.00000
0.98039	1.42200	0.00000
0.96154	1.42300	0.00000
0.94340	1.42300	0.00000
0.92593	1.42400	0.00000
0.90909	1.42400	0.00000
0.89286	1.42500	0.00000
0.87719	1.42500	0.00000
0.86207	1.42500	0.00000
0.84746	1.42600	0.00000
0.83333	1.42600	0.00000
0.81967	1.42700	0.00000
0.80645	1.42700	0.00000
0.79365	1.42700	0.00000
0.78125	1.42700	0.00000
0.76923	1.42700	0.00000
0.75758	1.42700	0.00000
0.74627	1.42700	0.00000
0.73529	1.42700	0.00000
0.72464	1.42700	0.00000
0.71429	1.42700	0.00000
0.70175	1.42800	0.00000
